/*--------------------------------*- C++ -*----------------------------------*\
  =========                 |
  \\      /  F ield         | OpenFOAM: The Open Source CFD Toolbox
   \\    /   O peration     | Website:  https://openfoam.org
    \\  /    A nd           | Version:  7
     \\/     M anipulation  |
\*---------------------------------------------------------------------------*/
FoamFile
{
    version     2.0;
    format      ascii;
    class       dictionary;
    object      computeForcesCoeff;
}
// * * * * * * * * * * * * * * * * * * * * * * * * * * * * * * * * * * * * * //

    // Mandatory entries
    type            forces;
    libs            ("libforces.so");
    patches         (rocket);


    // Optional entries

    // Field names
    p               p;
    U               U;
    rho             rho;

    // Reference pressure [Pa]
    pRef            0;

    // Include porosity effects?
    porosity        no;

    // Store and write volume field representations of forces and moments
    writeFields     yes;

    // Centre of rotation for moment calculations
    CofR            (0 0 0);

// ************************************************************************* //
